/*--------------------------------*- C++ -*----------------------------------*\
|       ______          _   __           ______                               |
|      / ____/  ___    / | / /          / ____/  ____   ____ _   ____ ___     |
|     / / __   / _ \  /  |/ /  ______  / /_     / __ \ / __ `/  / __ `__ \    |
|    / /_/ /  /  __/ / /|  /  /_____/ / __/    / /_/ // /_/ /  / / / / / /    |
|    \____/   \___/ /_/ |_/          /_/       \____/ \__,_/  /_/ /_/ /_/     |
|    Copyright (C) 2015 - 2022 EPFL                                           |
\*---------------------------------------------------------------------------*/
FoamFile
{
    version     2.0;
    format      ascii;
    class       dictionary;
    object      phaseProperties;
}
// * * * * * * * * * * * * * * * * * * * * * * * * * * * * * * * * * * * * * //

// ------------------------------------------------------------------------- //
// --- THERMAL-HYDRAULIC TYPE ---------------------------------------------- //
// ------------------------------------------------------------------------- //

thermalHydraulicsType    "onePhase";

// ------------------------------------------------------------------------- //
// --- STRUCTURES PROPERTIES ----------------------------------------------- //
// ------------------------------------------------------------------------- //

structureProperties
{    
    "zone0"
    {
        volumeFraction      0.5;
        Dh                  0.01;

        powerModel
        {
            type                nuclearFuelPin;
            volumetricArea      300;
            powerDensity        0;
            fuelInnerRadius     0.0012;
            fuelOuterRadius     0.004715;
            cladInnerRadius     0.004865;
            cladOuterRadius     0.005365;
            fuelMeshSize        16;
            cladMeshSize        4;
            fuelRho             10480;
            fuelCp              250;
            cladRho             7500;
            cladCp              500;
            gapH                3000;
            fuelK               3;
            cladK               20;
            fuelT               600;
            cladT               600;
        }

        passiveProperties
        {
            volumetricArea      2;
            rho                 7700;
            Cp                  500;
            T                   600;
        }
    }
}

// ------------------------------------------------------------------------- //
// --- REGIME MAP MODELS --------------------------------------------------- //
// ------------------------------------------------------------------------- //

regimeMapModels
{
}

// ------------------------------------------------------------------------- //
// --- REGIME PHYSICS FOR EACH REGIME -------------------------------------- //
// ------------------------------------------------------------------------- //

physicsModels
{
    dragModels
    {
        "zone0"
        {
            type    ReynoldsPower;
            coeff   0.687;
            exp     -0.25;
        }
    }

    heatTransferModels
    {
        "zone0"
        {
            type    NusseltReynoldsPrandtlPower;
            const   4.82;
            coeff   0.0185;
            expRe   0.827;
            expPr   0.827;
        }
    }
}

// ------------------------------------------------------------------------- //
// --- MISCELLANEA --------------------------------------------------------- //
// ------------------------------------------------------------------------- //

pMin                    10000;
pRefCell                0;
pRefValue               100000;

// ************************************************************************* //