/*--------------------------------*- C++ -*----------------------------------*\
|       ______          _   __           ______                               |
|      / ____/  ___    / | / /          / ____/  ____   ____ _   ____ ___     |
|     / / __   / _ \  /  |/ /  ______  / /_     / __ \ / __ `/  / __ `__ \    |
|    / /_/ /  /  __/ / /|  /  /_____/ / __/    / /_/ // /_/ /  / / / / / /    |
|    \____/   \___/ /_/ |_/          /_/       \____/ \__,_/  /_/ /_/ /_/     |
|    Copyright (C) 2015 - 2022 EPFL                                           |
\*---------------------------------------------------------------------------*/
FoamFile
{
    version     2.0;
    format      ascii;
    class       dictionary;
    object      phaseProperties;
}
// * * * * * * * * * * * * * * * * * * * * * * * * * * * * * * * * * * * * * //

// ------------------------------------------------------------------------- //
// --- THERMAL-HYDRAULIC TYPE ---------------------------------------------- //
// ------------------------------------------------------------------------- //

thermalHydraulicsType    "twoPhase";

// ------------------------------------------------------------------------- //
// --- FLUID PROPERTIES ---------------------------------------------------- //
// ------------------------------------------------------------------------- //

fluid1 "liquid";
fluid2 "vapour";

liquidProperties
{
    stateOfMatter   liquid;
    dispersedDiameterModel
    {
        type    constant;
        value   0.001;
    }
    thermoResidualAlpha 1e-6;
}

vapourProperties
{
    stateOfMatter   gas;

    dispersedDiameterModel
    {
        type    constant;
        value   0.001;
    }
    thermoResidualAlpha 1e-2;
}

// ------------------------------------------------------------------------- //
// --- STRUCTURES PROPERTIES ----------------------------------------------- //
// ------------------------------------------------------------------------- //

structureProperties
{  
    // left and down region
    "leftdownregioninletcorner"
    {
        volumeFraction  0.3371328621;
        Dh              0.0063460691;
    }
    
    "leftdownregioninletside1"
    {
        volumeFraction  0.3879703571;
        Dh              0.0081255374;
    }

    "leftdownregioninletside2"
    {
        volumeFraction  0.3879703571;
        Dh              0.0081255374;
    }

    "leftdownregioninletcenter1"
    {
        volumeFraction  0.4464738237;
        Dh              0.0117778432;
    }

    "leftdownregioninletcenter2"
    {
        volumeFraction  0.4464738237;
        Dh              0.0117778432;
    }
       
    "leftdownregionheatedcorner"
    {
        volumeFraction  0.3371328621;
        Dh              0.0063460691;

        powerModel
        {
            type            fixedPower;

            volumeFraction  0.0859548715;
            volumetricArea  141.9506788;
            powerDensity    2073128592;
            T               556.1;
            Cp              500;
            rho             7700;
        }
    }
    
    "leftdownregionheatedside1"
    {
        volumeFraction  0.3879703571;
        Dh              0.0081255374;

        powerModel
        {
            type            fixedPower;

            volumeFraction  0.0989163204;
            volumetricArea  163.3559398;
            powerDensity    2073128592;
            T               556.1;
            Cp              500;
            rho             7700;
        }
    }

    "leftdownregionheatedside2"
    {
        volumeFraction  0.3879703571;
        Dh              0.0081255374;

        powerModel
        {
            type            fixedPower;

            volumeFraction  0.0989163204;
            volumetricArea  163.3559398;
            powerDensity    1295705370;
            T               556.1;
            Cp              500;
            rho             7700;
        }
    }   

    "leftdownregionheatedcenter1"
    {
        volumeFraction  0.4464738237;
        Dh              0.0117778432;

        powerModel
        {
            type            fixedPower;

            volumeFraction  0.1138322735;
            volumetricArea  187.9889784;
            powerDensity    2073128592;
            T               556.1;
            Cp              500;
            rho             7700;
        }
    }
    
    "leftdownregionheatedcenter2"
    {
        volumeFraction  0.4464738237;
        Dh              0.0117778432;

        powerModel
        {
            type            fixedPower;

            volumeFraction  0.1138322735;
            volumetricArea  187.9889784;
            powerDensity    1684416981;
            T               556.1;
            Cp              500;
            rho             7700;
        }
    }

    "leftdownregionoutletcorner"
    {
        volumeFraction  0.3371328621;
        Dh              0.0063460691;
    }
    
    "leftdownregionoutletside1"
    {
        volumeFraction  0.3879703571;
        Dh              0.0081255374;
    }

    "leftdownregionoutletside2"
    {
        volumeFraction  0.3879703571;
        Dh              0.0081255374;
    }

    "leftdownregionoutletcenter1"
    {
        volumeFraction  0.4464738237;
        Dh              0.0117778432;
    }

    "leftdownregionoutletcenter2"
    {
        volumeFraction  0.4464738237;
        Dh              0.0117778432;
    }

    // right and down region
    "rightdownregioninletcorner"
    {
        volumeFraction  0.3371328621;
        Dh              0.0063460691;
    }
    
    "rightdownregioninletside"
    {
        volumeFraction  0.3879703571;
        Dh              0.0081255374;
    }

    "rightdownregioninletcenter1"
    {
        volumeFraction  0.4464738237;
        Dh              0.0117778432;
    }

    "rightdownregioninletcenter2"
    {
        volumeFraction  0.4464738237;
        Dh              0.0117778432;
    }
       
    "rightdownregionheatedcorner"
    {
        volumeFraction  0.3371328621;
        Dh              0.0063460691;

        powerModel
        {
            type            fixedPower;

            volumeFraction  0.0859548715;
            volumetricArea  141.9506788;
            powerDensity    518282147.9;
            T               556.1;
            Cp              500;
            rho             7700;
            
        }
    }
    
    "rightdownregionheatedside"
    {
        volumeFraction  0.3879703571;
        Dh              0.0081255374;

        powerModel
        {
            type            fixedPower;

            volumeFraction  0.0989163204;
            volumetricArea  163.3559398;
            powerDensity    518282147.9;
            T               556.1;
            Cp              500;
            rho             7700;
        }
    }

    "rightdownregionheatedcenter1"
    {
        volumeFraction  0.4464738237;
        Dh              0.0117778432;

        powerModel
        {
            type            fixedPower;

            volumeFraction  0.1138322735;
            volumetricArea  187.9889784;
            powerDensity    518282147.9;
            T               556.1;
            Cp              500;
            rho             7700;
        }
    }
    
    "rightdownregionheatedcenter2"
    {
        volumeFraction  0.4464738237;
        Dh              0.0117778432;

        powerModel
        {
            type            fixedPower;

            volumeFraction  0.1138322735;
            volumetricArea  187.9889784;
            powerDensity    906993758.8;
            T               556.1;
            Cp              500;
            rho             7700;
        }
    }

    "rightdownregionoutletcorner"
    {
        volumeFraction  0.3371328621;
        Dh              0.0063460691;
    }
    
    "rightdownregionoutletside"
    {
        volumeFraction  0.3879703571;
        Dh              0.0081255374;
    }

    "rightdownregionoutletcenter1"
    {
        volumeFraction  0.4464738237;
        Dh              0.0117778432;
    }

    "rightdownregionoutletcenter2"
    {
        volumeFraction  0.4464738237;
        Dh              0.0117778432;
    }
}

// ------------------------------------------------------------------------- //
// --- REGIME MAP MODELS --------------------------------------------------- //
// ------------------------------------------------------------------------- //

regimeMapModels
{}

// ------------------------------------------------------------------------- //
// --- PHYSICS MODELS ------------------------------------------------------ //
// ------------------------------------------------------------------------- //

physicsModels
{
    dragModels
    {
        "liquid.vapour"
        {
            type    BestionTRACE;//SchillerNaumann;
        }

        "liquid.structure"
        {
            //left and down region
            "leftdownregioninletcorner:leftdownregioninletside1:leftdownregioninletside2:leftdownregioninletcenter1:leftdownregioninletcenter2:leftdownregionheatedcorner:leftdownregionheatedside1:leftdownregionheatedside2:leftdownregionheatedcenter1:leftdownregionheatedcenter2:leftdownregionoutletcorner:leftdownregionoutletside1:leftdownregionoutletside2:leftdownregionoutletcenter1:leftdownregiono
            {
                type    ReynoldsPower;
                coeff   0.316;
                exp     -0.25;
            }

            //right and down region
            "rightdownregioninletcorner:rightdownregioninletside:rightdownregioninletcenter1:rightdownregioninletcenter2:rightdownregionheatedcorner:rightdownregionheatedside:rightdownregionheatedcenter1:rightdownregionheatedcenter2:rightdownregionoutletcorner:rightdownregionoutletside:rightdownregionoutletcenter1:rightdownregionoutletcenter2"
            {
                type    ReynoldsPower;
                coeff   0.316;
                exp     -0.25;
            }
        }
    }

    twoPhaseDragMultiplierModel
    {
        type                LockhartMartinelli;
        multiplierFluid     "liquid";
    }

    heatTransferModels
    {
        "liquid.structure"
        {
            "leftdownregionheatedcorner:leftdownregionheatedside1:leftdownregionheatedside2:leftdownregionheatedcenter1:leftdownregionheatedcenter2:rightdownregionheatedcorner:rightdownregionheatedside:rightdownregionheatedcenter1:rightdownregionheatedcenter2"
            {
                //- This model is intended to reproduce a bare-minimum of the
                //  TRACE two-phase heat transfer model (see 
                //  https://www.nrc.gov/docs/ML1200/ML120060218.pdf), though
                //  it is currently lacking CHF-prediction and post-CHF models.
                //  The nucleateBoilingOnsetModel and the 
                //  subCooledBoilingFractionModel are optional. If the former 
                //  is specified, the fluid can undergo sub-cooled boiling in
                //  those regions were the Twall > TonsetNucleateBoiling (TONB)
                //  with TONB being calculated by the selected model (only Basu
                //  et al. model currently implemented). If not specified, no
                //  sub-cooled boiling is predicted. If the latter is
                //  specified, only a portion of the total pool boiling heat 
                //  flux will contribute to a net vapour generation term.
                //  Currently only one model is implemented (SahaZuber), but it
                //  is outside the applicability range for the present case, so
                //  a constant (arbitrary for now) value is used.
                type    multiRegimeBoiling;
                forcedConvectionModel
                {
                    type    NusseltReynoldsPrandtlPower;
                    const   0.0;
                    coeff   0.023;
                    expRe   0.8;
                    expPr   0.4;
                }
                poolBoilingModel
                {
                    type    Gorenflo;
                }
                flowEnhancementFactorModel
                {
                    type    RezkallahSims;
                    exp     0.8;
                }
                suppressionFactorModel
                {
                    type    Chen;
                }
                nucleateBoilingOnsetModel
                {
                    type            Basu;
                    surfaceTension  0.012260695; //8e-3;   //- In N/m
                    contactAngle    38;     //- In degrees
                }
                subCooledBoilingFractionModel
                {
                    type            SahaZuber;  //constant;
                    //value           0.5;
                }
                superpositionExponent    3;
                heatFluxSuperposition    true;
            }
        }
        "liquid.vapour"
        {
            "liquid"
            {
                type    NusseltReynoldsPrandtlPower;
                const   2.0;
                coeff   0.6;
                expRe   0.5;
                expPr   0.33;
            }
            "vapour"
            {
                type    constant;
                value   1e3;
            }
        }
    }

    phaseChangeModel
    {
        type                        heatDriven;
        mode                        conductionLimited;
        residualInterfacialArea     1e-3;
        latentHeatModel
        {
            type                    water;
        }
        saturationModel
        {
            type                    water;
        }
    }

    pairGeometryModels
    {
        "liquid.vapour"
        {
            dispersionModel
            {
                type            constant;
                dispersedPhase  "vapour";
            }

            interfacialAreaDensityModel
            {
                type        spherical;
            }
        }

        "liquid.structure"
        {
            contactPartitionModel
            {
                type    constant;
                value   1.0;
            }
        }
    }
}

// ------------------------------------------------------------------------- //
// --- MISCELLANEA --------------------------------------------------------- //
// ------------------------------------------------------------------------- //

pMin                    10000;
pRefCell                0;
pRefValue               100000;
residualKd              1;

// ************************************************************************* //
