/*--------------------------------*- C++ -*----------------------------------*\
|       ______          _   __           ______                               |
|      / ____/  ___    / | / /          / ____/  ____   ____ _   ____ ___     |
|     / / __   / _ \  /  |/ /  ______  / /_     / __ \ / __ `/  / __ `__ \    |
|    / /_/ /  /  __/ / /|  /  /_____/ / __/    / /_/ // /_/ /  / / / / / /    |
|    \____/   \___/ /_/ |_/          /_/       \____/ \__,_/  /_/ /_/ /_/     |
|    Copyright (C) 2015 - 2022 EPFL                                           |
\*---------------------------------------------------------------------------*/
FoamFile
{
    version     2.0;
    format      ascii;
    class       dictionary;
    object      thermophysicalProperties;
}
// * * * * * * * * * * * * * * * * * * * * * * * * * * * * * * * * * * * * * //

thermoType
{
    type            heRhoThermo;
    mixture         pureMixture;
    transport       polynomial;
    thermo          hPolynomial;
    equationOfState icoPolynomial; //perfectGas;
    specie          specie;
    energy          sensibleEnthalpy;
}

pRef            1.4739395E+07;

mixture
{
    specie
    {
        molWeight 18.01528;
    }
    equationOfState
    {
        //- Derived from water data AT SATURATION in the 0.01-350 Celsius range
        //  from NIST:
        //  https://www.nist.gov/system/files/documents/srd/NISTIR5078-Tab1.pdf
        rhoCoeffs<8> 
        (
            838.466135
            1.40050603
            -0.0030112376
            3.71822313e-7
            0
            0 
            0 
            0
        );
    }
    thermodynamics
    {
        //- Derived from water data AT SATURATION in the 200-350 Celsius range
        //  from NIST:
        //  https://www.nist.gov/system/files/documents/srd/NISTIR5078-Tab1.pdf
        CpCoeffs<8>            
        (
            12010.1471
            -80.4073
            0.3099
            -5.381e-4
            3.6254e-7
            0
            0
            0
        );
        Hf                      0;
        Sf                      0;
    }
    transport
    {
        //- Derived from water data AT SATURATION in the 200-350 Celsius range
        //  From Nuclear Systems I: Thermal Hydraulic Fundamentals (No, Kazimi)
        muCoeffs<8>             
        (
            0.004
            -2.1075e-5
            3.8577e-8
            -2.3973e-11
            0
            0
            0
            0
        );
        //- Derived from water data AT SATURATION in the 0.01-350 Celsius range
        //  From Nuclear Systems I: Thermal Hydraulic Fundamentals (No, Kazimi)
        kappaCoeffs<8>          
        (
            -0.8691
            0.0089
            -1.5837e-5
            7.9754e-9
            0
            0
            0
            0
        );
    }
}

// ************************************************************************* //
