/*--------------------------------*- C++ -*----------------------------------*\
|       ______          _   __           ______                               |
|      / ____/  ___    / | / /          / ____/  ____   ____ _   ____ ___     |
|     / / __   / _ \  /  |/ /  ______  / /_     / __ \ / __ `/  / __ `__ \    |
|    / /_/ /  /  __/ / /|  /  /_____/ / __/    / /_/ // /_/ /  / / / / / /    |
|    \____/   \___/ /_/ |_/          /_/       \____/ \__,_/  /_/ /_/ /_/     |
|    Copyright (C) 2015 - 2022 EPFL                                           |
\*---------------------------------------------------------------------------*/
FoamFile
{
    version     2.0;
    format      ascii;
    class       dictionary;
    object      thermophysicalProperties;
}
// * * * * * * * * * * * * * * * * * * * * * * * * * * * * * * * * * * * * * //

//- COMPRESSIBLE

thermoType
{
    type            heRhoThermo;
    mixture         pureMixture;
    //transport       polynomial;
    //thermo          hPolynomial;
    //equationOfState icoPolynomial;
    transport       const;
    thermo          hConst;
    equationOfState perfectGas;
    specie          specie;
    energy          sensibleEnthalpy;
}

pRef                        1.4739395E+07;

mixture
{    
    specie
    {
        molWeight           18.01528;
    }
    thermodynamics
    {
        Cp                  10000;
        Hf                  0;
        Sf                  0;
    }
    transport
    {
        mu                  2e-4;
        Pr                  2;
    }
}

// ************************************************************************* //
